data/public_benchmarks/arpae_go/extracted/Challenge_1_Original_Dataset_2_Scenarios/Original_Dataset_Real-Time_Edition_2/Network_03R-020/scenario_20/case.raw
0,   100.00, 33, 0, 1, 60.00     / PSS(R)E-33.7    FRI, AUG 24 2018  11:31
 GO Competition Network Model 03
 2015 S             REAL_TIME SEQUENCE RUN AT 2015/07/22 11.
     1,'A1          ', 115.0000,1,   1,   1,   1,1.00486,  -9.0335,1.05000,0.95000,1.10000,0.90000
     2,'A2          ', 115.0000,1,   1,   1,   1,1.01202, -10.6303,1.05000,0.95000,1.10000,0.90000
     3,'A3          ',  35.0000,1,   1,   1,   1,0.99977,  -9.1583,1.05000,0.95000,1.10000,0.90000
     4,'A4          ', 115.0000,1,   1,   1,   1,1.01396,  -8.4292,1.05000,0.95000,1.10000,0.90000
     5,'A5          ',  13.0000,1,   1,   1,   1,1.01174, -11.0553,1.05000,0.95000,1.10000,0.90000
     6,'A6          ',  14.0000,2,   1,   1,   1,1.00020,  -8.2892,1.05000,0.95000,1.10000,0.90000
     7,'A7          ', 115.0000,1,   1,   1,   1,1.00212,  -8.9763,1.05000,0.95000,1.10000,0.90000
     8,'A8          ',  13.0000,1,   1,   1,   1,1.01237, -10.5734,1.05000,0.95000,1.10000,0.90000
     9,'A9          ',  35.0000,1,   1,   1,   1,1.00129,  -9.2176,1.05000,0.95000,1.10000,0.90000
    10,'A10         ', 115.0000,1,   1,   1,   1,1.01116, -11.0090,1.05000,0.95000,1.10000,0.90000
    11,'A11         ', 115.0000,1,   1,   1,   1,1.00890, -11.5109,1.05000,0.95000,1.10000,0.90000
    12,'A12         ',  35.0000,1,   1,   1,   1,1.00744,  -7.9815,1.05000,0.95000,1.10000,0.90000
    13,'A13         ',  13.0000,1,   1,   1,   1,1.01697, -10.4151,1.05000,0.95000,1.10000,0.90000
    15,'A15         ',  35.0000,1,   1,   1,   1,1.00881,  -9.2204,1.05000,0.95000,1.10000,0.90000
    16,'A16         ', 115.0000,1,   1,   1,   1,1.01592,  -8.3521,1.05000,0.95000,1.10000,0.90000
    17,'A17         ', 115.0000,1,   1,   1,   1,1.01670,  -8.3832,1.05000,0.95000,1.10000,0.90000
    18,'A18         ', 230.0000,1,   1,   1,   1,1.01006,  -7.1659,1.05000,0.95000,1.10000,0.90000
    19,'A19         ', 230.0000,1,   1,   1,   1,1.01017,  -7.1194,1.05000,0.95000,1.10000,0.90000
    20,'A20         ',  13.0000,1,   1,   1,   1,1.01398,  -8.4865,1.05000,0.95000,1.10000,0.90000
    21,'A21         ', 115.0000,1,   1,   1,   1,1.00560, -13.6503,1.05000,0.95000,1.10000,0.90000
    22,'A22         ', 115.0000,1,   1,   1,   1,1.00211,  -7.7877,1.05000,0.95000,1.10000,0.90000
    23,'A23         ', 115.0000,2,   1,   1,   1,1.01000,  -2.7545,1.05000,0.95000,1.10000,0.90000
    24,'A24         ', 115.0000,1,   1,   1,   1,0.99290,  -9.6752,1.05000,0.95000,1.10000,0.90000
    25,'A25         ',  14.0000,2,   1,   1,   1,1.00020,  -8.2892,1.05000,0.95000,1.10000,0.90000
    27,'A27         ', 115.0000,1,   1,   1,   1,1.01095, -10.9968,1.05000,0.95000,1.10000,0.90000
    28,'A28         ',  35.0000,1,   1,   1,   1,0.99831, -10.1639,1.05000,0.95000,1.10000,0.90000
    30,'A30         ', 115.0000,1,   1,   1,   1,0.99609,  -9.4989,1.05000,0.95000,1.10000,0.90000
    31,'A31         ', 230.0000,2,   1,   1,   1,1.00990,  -7.1648,1.05000,0.95000,1.10000,0.90000
    32,'A32         ', 115.0000,1,   1,   1,   1,1.01160, -10.7545,1.05000,0.95000,1.10000,0.90000
    33,'A33         ', 230.0000,2,   1,   1,   1,1.00909,  -7.4019,1.05000,0.95000,1.10000,0.90000
    34,'A34         ',  35.0000,1,   1,   1,   1,1.00365,  -6.3200,1.05000,0.95000,1.10000,0.90000
    35,'A35         ', 230.0000,2,   1,   1,   1,1.01017,  -7.1194,1.05000,0.95000,1.10000,0.90000
    36,'A36         ', 230.0000,1,   1,   1,   1,1.00909,  -7.4019,1.05000,0.95000,1.10000,0.90000
    37,'A37         ', 230.0000,1,   1,   1,   1,1.01160,  -9.1725,1.05000,0.95000,1.10000,0.90000
    38,'A38         ', 230.0000,1,   1,   1,   1,1.00918,  -7.2656,1.05000,0.95000,1.10000,0.90000
    39,'A39         ',  35.0000,1,   1,   1,   1,0.99254,  -6.6502,1.05000,0.95000,1.10000,0.90000
    40,'A40         ', 115.0000,1,   1,   1,   1,1.01460,  -7.6317,1.05000,0.95000,1.10000,0.90000
    41,'A41         ', 230.0000,1,   1,   1,   1,1.00542,  -9.8376,1.05000,0.95000,1.10000,0.90000
    43,'A43         ', 115.0000,2,   1,   1,   1,1.01310,  -8.4094,1.05000,0.95000,1.10000,0.90000
    44,'A44         ', 115.0000,1,   1,   1,   1,1.00911,  -3.2634,1.05000,0.95000,1.10000,0.90000
    45,'A45         ', 230.0000,2,   1,   1,   1,1.00909,  -7.4019,1.05000,0.95000,1.10000,0.90000
    46,'A46         ', 230.0000,2,   1,   1,   1,1.00480,  -9.1027,1.05000,0.95000,1.10000,0.90000
    47,'A47         ', 115.0000,2,   1,   1,   1,1.01310,  -7.1165,1.05000,0.95000,1.10000,0.90000
    49,'A49         ',  35.0000,1,   1,   1,   1,1.00365,  -6.3200,1.05000,0.95000,1.10000,0.90000
    50,'A50         ', 115.0000,1,   1,   1,   1,1.01242, -10.5905,1.05000,0.95000,1.10000,0.90000
    51,'A51         ',  13.0000,1,   1,   1,   1,0.99227,  -9.7117,1.05000,0.95000,1.10000,0.90000
    52,'A52         ', 230.0000,2,   1,   1,   1,1.00510,  -9.8216,1.05000,0.95000,1.10000,0.90000
    53,'A53         ', 115.0000,1,   1,   1,   1,1.01568, -11.5743,1.05000,0.95000,1.10000,0.90000
    54,'A54         ',  35.0000,1,   1,   1,   1,0.99964, -11.6092,1.05000,0.95000,1.10000,0.90000
    55,'A55         ', 230.0000,2,   1,   1,   1,1.01080,  -8.2892,1.05000,0.95000,1.10000,0.90000
    56,'A56         ',  35.0000,1,   1,   1,   1,1.00837,  -7.8949,1.05000,0.95000,1.10000,0.90000
    57,'A57         ', 115.0000,1,   1,   1,   1,0.99645, -14.3983,1.05000,0.95000,1.10000,0.90000
    58,'A58         ', 115.0000,1,   1,   1,   1,1.02206, -10.9196,1.05000,0.95000,1.10000,0.90000
    59,'A59         ',  35.0000,2,   1,   1,   1,1.03859,  -2.6319,1.05000,0.95000,1.10000,0.90000
    60,'A60         ', 115.0000,1,   1,   1,   1,1.00190,  -9.1547,1.05000,0.95000,1.10000,0.90000
    61,'A61         ',  13.0000,1,   1,   1,   1,1.01089, -11.0129,1.05000,0.95000,1.10000,0.90000
    62,'A62         ', 115.0000,1,   1,   1,   1,1.01647, -11.5032,1.05000,0.95000,1.10000,0.90000
    63,'A63         ', 230.0000,1,   1,   1,   1,1.00770,  -9.1518,1.05000,0.95000,1.10000,0.90000
    64,'A64         ',  35.0000,1,   1,   1,   1,1.00922,  -2.7783,1.05000,0.95000,1.10000,0.90000
    65,'A65         ',  14.0000,2,   1,   1,   1,1.01579,  -8.3567,1.05000,0.95000,1.10000,0.90000
    66,'A66         ', 230.0000,1,   1,   1,   1,1.01006,  -7.1659,1.05000,0.95000,1.10000,0.90000
    67,'A67         ', 115.0000,1,   1,   1,   1,1.00692,  -6.2558,1.05000,0.95000,1.10000,0.90000
    68,'A68         ', 115.0000,1,   1,   1,   1,1.01088, -12.6632,1.05000,0.95000,1.10000,0.90000
    69,'A69         ', 230.0000,1,   1,   1,   1,1.01020,  -7.1115,1.05000,0.95000,1.10000,0.90000
    70,'A70         ',  35.0000,1,   1,   1,   1,1.00081,  -7.8076,1.05000,0.95000,1.10000,0.90000
    71,'A71         ', 115.0000,2,   1,   1,   1,1.01590,  -6.6657,1.05000,0.95000,1.10000,0.90000
    72,'A72         ', 115.0000,1,   1,   1,   1,1.01095, -10.9480,1.05000,0.95000,1.10000,0.90000
    73,'A73         ', 115.0000,1,   1,   1,   1,1.00264,  -8.9093,1.05000,0.95000,1.10000,0.90000
    74,'A74         ', 115.0000,1,   1,   1,   1,1.01249, -10.5577,1.05000,0.95000,1.10000,0.90000
    75,'A75         ',  13.0000,1,   1,   1,   1,1.01448,  -8.5479,1.05000,0.95000,1.10000,0.90000
    76,'A76         ', 115.0000,1,   1,   1,   1,1.01734, -11.4171,1.05000,0.95000,1.10000,0.90000
    77,'A77         ',  35.0000,1,   1,   1,   1,0.98880, -10.1647,1.05000,0.95000,1.10000,0.90000
    78,'A78         ',  35.0000,1,   1,   1,   1,0.99559,  -9.5550,1.05000,0.95000,1.10000,0.90000
    79,'A79         ', 230.0000,1,   1,   1,   1,1.01156,  -9.3110,1.05000,0.95000,1.10000,0.90000
    80,'A80         ',  14.0000,2,   1,   1,   1,1.01580,  -8.3568,1.05000,0.95000,1.10000,0.90000
    81,'A81         ', 115.0000,1,   1,   1,   1,1.01725, -10.3838,1.05000,0.95000,1.10000,0.90000
    82,'A82         ', 115.0000,1,   1,   1,   1,1.01566, -11.5771,1.05000,0.95000,1.10000,0.90000
    83,'A83         ', 115.0000,1,   1,   1,   1,1.01209, -12.5207,1.05000,0.95000,1.10000,0.90000
    84,'A84         ', 115.0000,1,   1,   1,   1,1.01046, -12.7059,1.05000,0.95000,1.10000,0.90000
    85,'A85         ', 115.0000,1,   1,   1,   1,0.99640, -14.4038,1.05000,0.95000,1.10000,0.90000
    86,'A86         ', 230.0000,2,   1,   1,   1,1.01070,  -6.4423,1.05000,0.95000,1.10000,0.90000
    87,'A87         ', 230.0000,2,   1,   1,   1,1.00553,  -9.8479,1.05000,0.95000,1.10000,0.90000
    88,'A88         ',  35.0000,1,   1,   1,   1,1.00691,  -8.2002,1.05000,0.95000,1.10000,0.90000
    89,'A89         ',  35.0000,1,   1,   1,   1,0.99931,  -7.4447,1.05000,0.95000,1.10000,0.90000
    90,'A90         ', 230.0000,2,   1,   1,   1,1.00780,  -9.0863,1.05000,0.95000,1.10000,0.90000
    91,'A91         ', 115.0000,1,   1,   1,   1,1.01252, -12.4486,1.05000,0.95000,1.10000,0.90000
    92,'A92         ', 115.0000,1,   1,   1,   1,1.00976, -11.4832,1.05000,0.95000,1.10000,0.90000
    93,'A93         ', 115.0000,2,   1,   1,   1,1.01610,  -8.3432,1.05000,0.95000,1.10000,0.90000
    94,'A94         ', 115.0000,1,   1,   1,   1,0.99351,  -9.6378,1.05000,0.95000,1.10000,0.90000
    95,'B95         ', 345.0000,1,   1,   2,   1,0.99146, -16.4822,1.05000,0.95000,1.10000,0.90000
    96,'B96         ', 345.0000,1,   1,   2,   1,0.99141, -16.4876,1.05000,0.95000,1.10000,0.90000
    97,'B97         ', 345.0000,1,   1,   2,   1,0.99342, -16.5533,1.05000,0.95000,1.10000,0.90000
    98,'B98         ', 345.0000,2,   1,   2,   1,0.99347, -16.5587,1.05000,0.95000,1.10000,0.90000
    99,'B99         ', 345.0000,2,   1,   2,   1,0.99501, -16.0303,1.05000,0.95000,1.10000,0.90000
   100,'B100        ', 345.0000,2,   1,   2,   1,0.99502, -16.0479,1.05000,0.95000,1.10000,0.90000
   101,'B101        ', 345.0000,1,   1,   2,   1,1.00955, -17.4782,1.05000,0.95000,1.10000,0.90000
   102,'B102        ', 345.0000,1,   1,   2,   1,1.01170, -17.3271,1.05000,0.95000,1.10000,0.90000
   103,'B103        ', 138.0000,1,   1,   2,   1,1.02467, -14.4646,1.05000,0.95000,1.10000,0.90000
   104,'B104        ', 138.0000,1,   1,   2,   1,1.01209,  12.7116,1.05000,0.95000,1.10000,0.90000
   105,'B105        ', 138.0000,1,   1,   2,   1,1.01223,  12.5169,1.05000,0.95000,1.10000,0.90000
   106,'B106        ', 138.0000,1,   1,   2,   1,1.01771,  -5.2477,1.05000,0.95000,1.10000,0.90000
   107,'B107        ', 138.0000,1,   1,   2,   1,1.01774,  -5.2524,1.05000,0.95000,1.10000,0.90000
   108,'B108        ', 138.0000,1,   1,   2,   1,1.02692,  16.5565,1.05000,0.95000,1.10000,0.90000
   109,'B109        ', 138.0000,1,   1,   2,   1,1.01239, -15.7469,1.05000,0.95000,1.10000,0.90000
   110,'B110        ', 138.0000,1,   1,   2,   1,1.01777,  -5.2143,1.05000,0.95000,1.10000,0.90000
   111,'B111        ', 138.0000,1,   1,   2,   1,1.01778,  -5.2179,1.05000,0.95000,1.10000,0.90000
   112,'B112        ', 138.0000,1,   1,   2,   1,1.02715,  -6.8169,1.05000,0.95000,1.10000,0.90000
   113,'B113        ', 138.0000,1,   1,   2,   1,1.02715,  -6.8169,1.05000,0.95000,1.10000,0.90000
   114,'B114        ', 138.0000,1,   1,   2,   1,1.02725,  -6.8097,1.05000,0.95000,1.10000,0.90000
   115,'B115        ', 138.0000,1,   1,   2,   1,1.01235, -16.2244,1.05000,0.95000,1.10000,0.90000
   116,'B116        ', 138.0000,2,   1,   2,   1,1.01766, -14.3164,1.05000,0.95000,1.10000,0.90000
   117,'B117        ', 138.0000,2,   1,   2,   1,1.01775, -14.3663,1.05000,0.95000,1.10000,0.90000
   118,'B118        ', 138.0000,1,   1,   2,   1,1.01927, -14.9670,1.05000,0.95000,1.10000,0.90000
   119,'B119        ', 138.0000,1,   1,   2,   1,1.01939, -14.9588,1.05000,0.95000,1.10000,0.90000
   120,'B120        ', 138.0000,1,   1,   2,   1,1.01199, -15.9278,1.05000,0.95000,1.10000,0.90000
   121,'B121        ', 138.0000,2,   1,   2,   1,1.01522, -15.4068,1.05000,0.95000,1.10000,0.90000
   122,'B122        ', 138.0000,1,   1,   2,   1,1.01524, -15.4038,1.05000,0.95000,1.10000,0.90000
   123,'B123        ', 138.0000,1,   1,   2,   1,1.01524, -15.4038,1.05000,0.95000,1.10000,0.90000
   124,'B124        ', 138.0000,1,   1,   2,   1,1.01522, -15.4068,1.05000,0.95000,1.10000,0.90000
   125,'B125        ', 138.0000,1,   1,   2,   1,1.01243, -15.7431,1.05000,0.95000,1.10000,0.90000
   126,'B126        ', 138.0000,1,   1,   2,   1,1.01235, -16.2245,1.05000,0.95000,1.10000,0.90000
   127,'B127        ', 138.0000,1,   1,   2,   1,1.01494,  -4.6651,1.05000,0.95000,1.10000,0.90000
   128,'B128        ', 138.0000,1,   1,   2,   1,1.01466,  -4.6389,1.05000,0.95000,1.10000,0.90000
   129,'B129        ', 138.0000,1,   1,   2,   1,1.00170,  -1.2459,1.05000,0.95000,1.10000,0.90000
   130,'B130        ', 138.0000,1,   1,   2,   1,1.00184,  -1.2438,1.05000,0.95000,1.10000,0.90000
   131,'B131        ', 138.0000,2,   1,   2,   1,1.02701,  -6.8297,1.05000,0.95000,1.10000,0.90000
   132,'B132        ', 138.0000,1,   1,   2,   1,1.01753, -14.3257,1.05000,0.95000,1.10000,0.90000
   133,'B133        ', 138.0000,2,   1,   2,   1,1.00202, -17.1082,1.05000,0.95000,1.10000,0.90000
   134,'B134        ', 138.0000,2,   1,   2,   1,0.98895, -18.0759,1.05000,0.95000,1.10000,0.90000
   135,'B135        ', 138.0000,1,   1,   2,   1,1.01209, -15.7698,1.05000,0.95000,1.10000,0.90000
   136,'B136        ', 138.0000,1,   1,   2,   1,1.01519, -15.4093,1.05000,0.95000,1.10000,0.90000
   137,'B137        ', 138.0000,1,   1,   2,   1,1.00561,  -2.5058,1.05000,0.95000,1.10000,0.90000
   138,'B138        ', 138.0000,1,   1,   2,   1,1.00002,   5.1977,1.05000,0.95000,1.10000,0.90000
   139,'B139        ', 138.0000,1,   1,   2,   1,1.00002,   5.1977,1.05000,0.95000,1.10000,0.90000
   140,'B140        ', 138.0000,1,   1,   2,   1,1.01798,  -5.1449,1.05000,0.95000,1.10000,0.90000
   141,'B141        ', 138.0000,1,   1,   2,   1,1.01916,  -5.0310,1.05000,0.95000,1.10000,0.90000
   142,'B142        ', 138.0000,1,   1,   2,   1,1.01932, -15.1176,1.05000,0.95000,1.10000,0.90000
   143,'B143        ', 138.0000,1,   1,   2,   1,1.01947, -15.1325,1.05000,0.95000,1.10000,0.90000
   144,'B144        ', 138.0000,1,   1,   2,   1,1.01243, -15.7431,1.05000,0.95000,1.10000,0.90000
   145,'B145        ', 138.0000,1,   1,   2,   1,1.01913, -14.4578,1.05000,0.95000,1.10000,0.90000
   146,'B146        ', 138.0000,1,   1,   2,   1,1.01564,  -5.7608,1.05000,0.95000,1.10000,0.90000
   147,'B147        ', 138.0000,1,   1,   2,   1,1.01563,  -5.7729,1.05000,0.95000,1.10000,0.90000
   148,'B148        ', 138.0000,1,   1,   2,   1,1.01591, -17.1692,1.05000,0.95000,1.10000,0.90000
   149,'B149        ', 138.0000,1,   1,   2,   1,1.01629, -17.1511,1.05000,0.95000,1.10000,0.90000
   150,'B150        ', 138.0000,1,   1,   2,   1,1.01228, -16.2281,1.05000,0.95000,1.10000,0.90000
   151,'B151        ', 138.0000,2,   1,   2,   1,1.00118,  -0.5480,1.05000,0.95000,1.10000,0.90000
   152,'B152        ', 138.0000,2,   1,   2,   1,1.02455, -14.4628,1.05000,0.95000,1.10000,0.90000
   153,'B153        ', 138.0000,1,   1,   2,   1,1.01799, -14.6977,1.05000,0.95000,1.10000,0.90000
   154,'B154        ', 138.0000,1,   1,   2,   1,1.01812, -14.7155,1.05000,0.95000,1.10000,0.90000
   155,'B155        ', 138.0000,1,   1,   2,   1,1.01816,  -5.2997,1.05000,0.95000,1.10000,0.90000
   156,'B156        ', 138.0000,2,   1,   2,   1,1.01824,  -5.2866,1.05000,0.95000,1.10000,0.90000
   157,'B157        ', 138.0000,1,   1,   2,   1,1.02343,  -5.5371,1.05000,0.95000,1.10000,0.90000
   158,'B158        ', 138.0000,1,   1,   2,   1,1.02353,  -5.5316,1.05000,0.95000,1.10000,0.90000
   159,'B159        ', 138.0000,2,   1,   2,   1,1.01930,  -5.7716,1.05000,0.95000,1.10000,0.90000
   160,'B160        ', 138.0000,1,   1,   2,   1,1.01921,  -5.7682,1.05000,0.95000,1.10000,0.90000
   161,'B161        ', 138.0000,1,   1,   2,   1,1.01696, -15.2012,1.05000,0.95000,1.10000,0.90000
   162,'B162        ', 138.0000,1,   1,   2,   1,1.01683, -15.2230,1.05000,0.95000,1.10000,0.90000
   163,'B163        ', 138.0000,1,   1,   2,   1,1.01859,  -5.4220,1.05000,0.95000,1.10000,0.90000
   164,'B164        ', 138.0000,1,   1,   2,   1,1.01855,  -5.4155,1.05000,0.95000,1.10000,0.90000
   165,'B165        ', 138.0000,1,   1,   2,   1,1.01810,  -5.3043,1.05000,0.95000,1.10000,0.90000
   166,'B166        ', 138.0000,1,   1,   2,   1,1.01819,  -5.2903,1.05000,0.95000,1.10000,0.90000
   167,'B167        ', 138.0000,1,   1,   2,   1,1.01235, -15.2177,1.05000,0.95000,1.10000,0.90000
   168,'B168        ', 138.0000,1,   1,   2,   1,1.01243, -15.1757,1.05000,0.95000,1.10000,0.90000
   169,'B169        ', 138.0000,1,   1,   2,   1,1.02177,  15.4528,1.05000,0.95000,1.10000,0.90000
   170,'B170        ', 138.0000,1,   1,   2,   1,1.02185,  15.4592,1.05000,0.95000,1.10000,0.90000
   171,'B171        ', 138.0000,1,   1,   2,   1,1.01874,  -5.4734,1.05000,0.95000,1.10000,0.90000
   172,'B172        ', 138.0000,1,   1,   2,   1,1.01873,  -5.4707,1.05000,0.95000,1.10000,0.90000
   173,'B173        ', 138.0000,1,   1,   2,   1,1.00224,  -1.7934,1.05000,0.95000,1.10000,0.90000
   174,'B174        ', 138.0000,1,   1,   2,   1,1.00289,  -1.7466,1.05000,0.95000,1.10000,0.90000
   175,'B175        ', 138.0000,1,   1,   2,   1,1.01381, -16.7204,1.05000,0.95000,1.10000,0.90000
   176,'B176        ', 138.0000,1,   1,   2,   1,1.01394, -16.7375,1.05000,0.95000,1.10000,0.90000
   177,'B177        ', 138.0000,1,   1,   2,   1,1.01223, -16.1344,1.05000,0.95000,1.10000,0.90000
   178,'B178        ', 138.0000,1,   1,   2,   1,1.01223, -16.1344,1.05000,0.95000,1.10000,0.90000
   179,'B179        ', 138.0000,1,   1,   2,   1,1.00177,   7.3263,1.05000,0.95000,1.10000,0.90000
   180,'B180        ', 138.0000,1,   1,   2,   1,1.00132,   7.5200,1.05000,0.95000,1.10000,0.90000
   181,'B181        ', 138.0000,1,   1,   2,   1,1.00877,  -3.5046,1.05000,0.95000,1.10000,0.90000
   182,'B182        ', 138.0000,1,   1,   2,   1,1.00902,  -3.5331,1.05000,0.95000,1.10000,0.90000
   183,'B183        ', 138.0000,1,   1,   2,   1,1.00415,  -2.0348,1.05000,0.95000,1.10000,0.90000
   184,'B184        ', 138.0000,1,   1,   2,   1,1.01957, -14.3900,1.05000,0.95000,1.10000,0.90000
   185,'B185        ', 138.0000,1,   1,   2,   1,1.01954, -14.4273,1.05000,0.95000,1.10000,0.90000
   186,'B186        ', 138.0000,1,   1,   2,   1,1.01978, -14.3793,1.05000,0.95000,1.10000,0.90000
   187,'B187        ', 138.0000,1,   1,   2,   1,1.01979, -14.4151,1.05000,0.95000,1.10000,0.90000
   188,'B188        ', 138.0000,1,   1,   2,   1,1.00239,  -1.2094,1.05000,0.95000,1.10000,0.90000
   189,'B189        ', 138.0000,1,   1,   2,   1,1.00217,  -1.1784,1.05000,0.95000,1.10000,0.90000
   190,'B190        ', 138.0000,2,   1,   2,   1,1.03300,  -6.3179,1.05000,0.95000,1.10000,0.90000
   191,'B191        ', 138.0000,1,   1,   2,   1,1.01235, -15.8328,1.05000,0.95000,1.10000,0.90000
   192,'B192        ', 138.0000,1,   1,   2,   1,1.01239, -15.8305,1.05000,0.95000,1.10000,0.90000
   193,'B193        ', 138.0000,1,   1,   2,   1,1.01220, -15.7612,1.05000,0.95000,1.10000,0.90000
   194,'B194        ', 138.0000,1,   1,   2,   1,1.02264, -11.9592,1.05000,0.95000,1.10000,0.90000
   195,'B195        ', 138.0000,1,   1,   2,   1,1.02277, -11.9490,1.05000,0.95000,1.10000,0.90000
   196,'B196        ', 138.0000,1,   1,   2,   1,1.03301,  -6.3180,1.05000,0.95000,1.10000,0.90000
   197,'B197        ', 138.0000,1,   1,   2,   1,1.01524, -15.4039,1.05000,0.95000,1.10000,0.90000
   198,'B198        ', 138.0000,1,   1,   2,   1,1.01200, -16.0012,1.05000,0.95000,1.10000,0.90000
   199,'B199        ', 138.0000,1,   1,   2,   1,1.01201, -16.0009,1.05000,0.95000,1.10000,0.90000
   200,'B200        ', 138.0000,1,   1,   2,   1,1.01791,  -5.2956,1.05000,0.95000,1.10000,0.90000
   201,'B201        ', 138.0000,1,   1,   2,   1,1.01796,  -5.2978,1.05000,0.95000,1.10000,0.90000
   202,'B202        ', 138.0000,1,   1,   2,   1,1.01781,  -5.2711,1.05000,0.95000,1.10000,0.90000
   203,'B203        ', 138.0000,1,   1,   2,   1,1.01777,  -5.2664,1.05000,0.95000,1.10000,0.90000
   204,'B204        ', 138.0000,1,   1,   2,   1,1.01801,  -5.2642,1.05000,0.95000,1.10000,0.90000
...
0 / END OF BUS DATA, BEGIN LOAD DATA
     1,'1 ',1,   1,  11,    11.351,     4.778,     0.000,     0.000,     0.000,     0.000,   1,1,0
     2,'1 ',1,   1,  11,     6.543,     1.455,     0.000,     0.000,     0.000,     0.000,   1,1,0
     2,'2 ',1,   1,  11,     0.081,     0.377,     0.000,     0.000,     0.000,     0.000,   1,1,0
     2,'99',0,   1,  11,    16.545,    15.406,     0.000,     0.000,     0.000,     0.000,   1,1,0
     3,'1 ',1,   1,  11,     6.514,     1.846,     0.000,     0.000,     0.000,     0.000,   1,1,0
     5,'1 ',1,   1,  11,     0.362,    -0.938,     0.000,     0.000,     0.000,     0.000,   1,1,0
     7,'1 ',1,   1,  11,     5.022,     2.873,     0.000,     0.000,     0.000,     0.000,   1,1,0
     8,'1 ',1,   1,  11,     1.566,     0.266,     0.000,     0.000,     0.000,     0.000,   1,1,0
     9,'1 ',1,   1,  11,     9.674,     1.898,     0.000,     0.000,     0.000,     0.000,   1,1,0
    12,'1 ',1,   1,  11,     7.193,     4.726,     0.000,     0.000,     0.000,     0.000,   1,1,0
    13,'1 ',1,   1,  11,     5.967,     1.639,     0.000,     0.000,     0.000,     0.000,   1,1,0
    15,'1 ',1,   1,  11,     9.593,     2.474,     0.000,     0.000,     0.000,     0.000,   1,1,0
    20,'1 ',1,   1,  11,     9.386,    -2.984,     0.000,     0.000,     0.000,     0.000,   1,1,0
    21,'1 ',1,   1,  11,     5.827,    -0.783,     0.000,     0.000,     0.000,     0.000,   1,1,0
    28,'1 ',1,   1,  11,    17.879,     2.127,     0.000,     0.000,     0.000,     0.000,   1,1,0
    32,'1 ',1,   1,  11,     5.147,     0.864,     0.000,     0.000,     0.000,     0.000,   1,1,0
    34,'1 ',1,   1,  11,     7.208,     5.923,     0.000,     0.000,     0.000,     0.000,   1,1,0
    36,'99',0,   1,  11,   108.412,    -4.520,     0.000,     0.000,     0.000,     0.000,   1,1,0
    37,'1 ',1,   1,  11,    -6.019,    -2.393,     0.000,     0.000,     0.000,     0.000,   1,1,0
    39,'1 ',1,   1,  11,    12.806,     5.155,     0.000,     0.000,     0.000,     0.000,   1,1,0
    43,'1 ',1,   1,  11,     1.477,     0.332,     0.000,     0.000,     0.000,     0.000,   1,1,0
    44,'1 ',1,   1,  11,     6.514,     1.654,     0.000,     0.000,     0.000,     0.000,   1,1,0
    47,'1 ',1,   1,  11,     7.762,    -1.100,     0.000,     0.000,     0.000,     0.000,   1,1,0
    49,'1 ',1,   1,  11,     7.208,     5.923,     0.000,     0.000,     0.000,     0.000,   1,1,0
    51,'1 ',1,   1,  11,     3.693,     2.216,     0.000,     0.000,     0.000,     0.000,   1,1,0
    53,'1 ',1,   1,  11,     5.155,     0.399,     0.000,     0.000,     0.000,     0.000,   1,1,0
    54,'1 ',1,   1,  11,    10.539,    -0.798,     0.000,     0.000,     0.000,     0.000,   1,1,0
    56,'1 ',1,   1,  11,     4.623,     4.276,     0.000,     0.000,     0.000,     0.000,   1,1,0
    57,'1 ',1,   1,  11,     5.295,    -0.199,     0.000,     0.000,     0.000,     0.000,   1,1,0
    58,'99',0,   1,  11,    10.106,    10.951,     0.000,     0.000,     0.000,     0.000,   1,1,0
    59,'1 ',1,   1,  11,     6.580,     3.885,     0.000,     0.000,     0.000,     0.000,   1,1,0
    61,'1 ',1,   1,  11,     2.769,    -0.340,     0.000,     0.000,     0.000,     0.000,   1,1,0
    62,'1 ',1,   1,  11,     5.753,    -0.199,     0.000,     0.000,     0.000,     0.000,   1,1,0
    63,'1 ',1,   1,  11,    21.801,     0.066,     0.000,     0.000,     0.000,     0.000,   1,1,0
    64,'1 ',1,   1,  11,     6.255,     5.546,     0.000,     0.000,     0.000,     0.000,   1,1,0
    65,'1 ',1,   1,  11,     0.672,     0.436,     0.000,     0.000,     0.000,     0.000,   1,1,0
    68,'1 ',1,   1,  11,     5.192,    -0.192,     0.000,     0.000,     0.000,     0.000,   1,1,0
    70,'1 ',1,   1,  11,     4.091,    -2.563,     0.000,     0.000,     0.000,     0.000,   1,1,0
    71,'1 ',1,   1,  11,     4.150,    -1.292,     0.000,     0.000,     0.000,     0.000,   1,1,0
    71,'2 ',1,   1,  11,     4.150,    -1.292,     0.000,     0.000,     0.000,     0.000,   1,1,0
    72,'1 ',1,   1,  11,     3.951,     0.258,     0.000,     0.000,     0.000,     0.000,   1,1,0
    74,'1 ',1,   1,  11,    -0.244,     0.258,     0.000,     0.000,     0.000,     0.000,   1,1,0
    74,'2 ',1,   1,  11,     5.147,     3.257,     0.000,     0.000,     0.000,     0.000,   1,1,0
    75,'1 ',1,   1,  11,     2.201,    -1.787,     0.000,     0.000,     0.000,     0.000,   1,1,0
    76,'1 ',1,   1,  11,     3.944,    -0.199,     0.000,     0.000,     0.000,     0.000,   1,1,0
    77,'1 ',1,   1,  11,    17.303,     0.310,     0.000,     0.000,     0.000,     0.000,   1,1,0
    78,'1 ',1,   1,  11,    10.302,     2.540,     0.000,     0.000,     0.000,     0.000,   1,1,0
    80,'1 ',1,   1,  11,     0.665,     0.399,     0.000,     0.000,     0.000,     0.000,   1,1,0
    81,'99',0,   1,  11,    30.844,    22.078,     0.000,     0.000,     0.000,     0.000,   1,1,0
    82,'1 ',1,   1,  11,     5.155,     0.399,     0.000,     0.000,     0.000,     0.000,   1,1,0
    84,'1 ',1,   1,  11,     6.396,     0.406,     0.000,     0.000,     0.000,     0.000,   1,1,0
    85,'1 ',1,   1,  11,    10.095,     2.828,     0.000,     0.000,     0.000,     0.000,   1,1,0
    88,'1 ',1,   1,  11,    -0.192,     0.007,     0.000,     0.000,     0.000,     0.000,   1,1,0
    89,'1 ',1,   1,  11,    14.438,     0.015,     0.000,     0.000,     0.000,     0.000,   1,1,0
    92,'1 ',1,   1,  11,     3.345,    -0.199,     0.000,     0.000,     0.000,     0.000,   1,1,0
    94,'1 ',1,   1,  11,     1.603,     1.854,     0.000,     0.000,     0.000,     0.000,   1,1,0
    96,'99',1,   1,   4,    16.365,    29.064,     0.000,     0.000,     0.000,     0.000,   1,1,0
    97,'99',1,   1,   4,    13.907,    18.689,     0.000,     0.000,     0.000,     0.000,   1,1,0
    99,'1 ',1,   1,   4,     5.170,    13.293,     0.000,     0.000,     0.000,     0.000,   1,1,0
   100,'1 ',1,   1,   4,     5.908,    15.509,     0.000,     0.000,     0.000,     0.000,   1,1,0
   101,'99',1,   1,   4,    75.892,    14.465,     0.000,     0.000,     0.000,     0.000,   1,1,0
   102,'99',0,   1,   4,     1.156,   -45.892,     0.000,     0.000,     0.000,     0.000,   1,1,0
   105,'1 ',1,   1,   4,     3.161,     1.167,     0.000,     0.000,     0.000,     0.000,   1,1,0
   106,'1 ',1,   1,   4,     4.047,     1.699,     0.000,     0.000,     0.000,     0.000,   1,1,0
   108,'1 ',1,   1,   4,     5.687,     1.891,     0.000,     0.000,     0.000,     0.000,   1,1,0
   108,'99',1,   1,   4,     1.524,   -11.927,     0.000,     0.000,     0.000,     0.000,   1,1,0
   109,'1 ',1,   1,   4,     6.078,     1.595,     0.000,     0.000,     0.000,     0.000,   1,1,0
   110,'1 ',1,   1,   4,     1.381,     0.591,     0.000,     0.000,     0.000,     0.000,   1,1,0
   111,'1 ',1,   1,   4,     2.467,     1.049,     0.000,     0.000,     0.000,     0.000,   1,1,0
   112,'1 ',1,   1,   4,     9.985,     3.715,     0.000,     0.000,     0.000,     0.000,   1,1,0
   115,'1 ',1,   1,   4,     3.552,     1.278,     0.000,     0.000,     0.000,     0.000,   1,1,0
   116,'1 ',1,   1,   4,    17.436,    15.583,     0.000,     0.000,     0.000,     0.000,   1,1,0
   118,'1 ',1,   1,   4,     4.032,     1.706,     0.000,     0.000,     0.000,     0.000,   1,1,0
   120,'1 ',1,   1,   4,     7.104,     2.319,     0.000,     0.000,     0.000,     0.000,   1,1,0
   121,'1 ',1,   1,   4,     0.000,     0.000,     0.000,     0.000,     0.000,     0.000,   1,1,0
   128,'1 ',1,   1,   4,     0.739,     0.281,     0.000,     0.000,     0.000,     0.000,   1,1,0
   129,'1 ',1,   1,   4,     3.316,     2.297,     0.000,     0.000,     0.000,     0.000,   1,1,0
   131,'1 ',1,   1,   4,    59.081,    28.802,     0.000,     0.000,     0.000,     0.000,   1,1,0
   132,'1 ',1,   1,   4,     3.862,     1.337,     0.000,     0.000,     0.000,     0.000,   1,1,0
   133,'1 ',1,   1,   4,     1.418,     0.443,     0.000,     0.000,     0.000,     0.000,   1,1,0
   134,'1 ',1,   1,   4,    39.141,     2.000,     0.000,     0.000,     0.000,     0.000,   1,1,0
   135,'1 ',1,   1,   4,     4.431,     1.573,     0.000,     0.000,     0.000,     0.000,   1,1,0
   136,'1 ',1,   1,   4,     2.053,     0.665,     0.000,     0.000,     0.000,     0.000,   1,1,0
   137,'1 ',1,   1,   4,     7.806,     2.592,     0.000,     0.000,     0.000,     0.000,   1,1,0
   137,'99',0,   1,   4,    28.183,   -12.764,     0.000,     0.000,     0.000,     0.000,   1,1,0
   138,'1 ',1,   1,   4,     0.318,     0.074,     0.000,     0.000,     0.000,     0.000,   1,1,0
   140,'1 ',1,   1,   4,     2.053,     1.226,     0.000,     0.000,     0.000,     0.000,   1,1,0
   141,'1 ',1,   1,   4,     4.306,     0.495,     0.000,     0.000,     0.000,     0.000,   1,1,0
   142,'1 ',1,   1,   4,     5.997,     2.038,     0.000,     0.000,     0.000,     0.000,   1,1,0
   143,'99',0,   1,   4,     0.426,     1.249,     0.000,     0.000,     0.000,     0.000,   1,1,0
   145,'99',0,   1,   4,    53.244,    16.969,     0.000,     0.000,     0.000,     0.000,   1,1,0
   146,'1 ',1,   1,   4,     1.182,     0.295,     0.000,     0.000,     0.000,     0.000,   1,1,0
   147,'1 ',1,   1,   4,     0.790,     0.362,     0.000,     0.000,     0.000,     0.000,   1,1,0
   148,'1 ',1,   1,   4,     4.822,     2.060,     0.000,     0.000,     0.000,     0.000,   1,1,0
   149,'99',0,   1,   4,     9.227,    -8.412,     0.000,     0.000,     0.000,     0.000,   1,1,0
   150,'1 ',1,   1,   4,     3.552,     1.115,     0.000,     0.000,     0.000,     0.000,   1,1,0
   151,'1 ',1,   1,   4,    13.965,    22.310,     0.000,     0.000,     0.000,     0.000,   1,1,0
   152,'1 ',1,   1,   4,     5.170,    10.339,     0.000,     0.000,     0.000,     0.000,   1,1,0
   153,'1 ',1,   1,   4,     6.713,     2.260,     0.000,     0.000,     0.000,     0.000,   1,1,0
   157,'1 ',1,   1,   4,     2.171,     0.923,     0.000,     0.000,     0.000,     0.000,   1,1,0
   159,'1 ',1,   1,   4,    10.745,     0.406,     0.000,     0.000,     0.000,     0.000,   1,1,0
   160,'1 ',1,   1,   4,     8.293,     1.964,     0.000,     0.000,     0.000,     0.000,   1,1,0
   161,'1 ',1,   1,   4,     4.712,     2.046,     0.000,     0.000,     0.000,     0.000,   1,1,0
   162,'1 ',1,   1,   4,     6.137,     2.718,     0.000,     0.000,     0.000,     0.000,   1,1,0
   163,'1 ',1,   1,   4,     0.628,     0.059,     0.000,     0.000,     0.000,     0.000,   1,1,0
   165,'1 ',1,   1,   4,     0.487,     0.288,     0.000,     0.000,     0.000,     0.000,   1,1,0
   166,'1 ',1,   1,   4,     0.391,     0.229,     0.000,     0.000,     0.000,     0.000,   1,1,0
   168,'1 ',1,   1,   4,     7.658,     2.555,     0.000,     0.000,     0.000,     0.000,   1,1,0
   169,'1 ',1,   1,   4,     1.898,     0.687,     0.000,     0.000,     0.000,     0.000,   1,1,0
   171,'1 ',1,   1,   4,     3.951,     0.561,     0.000,     0.000,     0.000,     0.000,   1,1,0
   173,'1 ',1,   1,   4,     5.362,     2.001,     0.000,     0.000,     0.000,     0.000,   1,1,0
   175,'1 ',1,   1,   4,     2.208,     0.842,     0.000,     0.000,     0.000,     0.000,   1,1,0
   176,'1 ',1,   1,   4,     4.741,     1.684,     0.000,     0.000,     0.000,     0.000,   1,1,0
   179,'1 ',1,   1,   4,     4.424,     1.521,     0.000,     0.000,     0.000,     0.000,   1,1,0
   181,'1 ',1,   1,   4,     3.353,     1.396,     0.000,     0.000,     0.000,     0.000,   1,1,0
   182,'1 ',1,   1,   4,     3.161,     1.322,     0.000,     0.000,     0.000,     0.000,   1,1,0
   184,'1 ',1,   1,   4,     2.688,     0.908,     0.000,     0.000,     0.000,     0.000,   1,1,0
   185,'1 ',1,   1,   4,     3.153,     1.145,     0.000,     0.000,     0.000,     0.000,   1,1,0
   188,'1 ',1,   1,   4,     0.554,     0.273,     0.000,     0.000,     0.000,     0.000,   1,1,0
   189,'1 ',1,   1,   4,     0.945,     0.428,     0.000,     0.000,     0.000,     0.000,   1,1,0
   191,'1 ',1,   1,   4,     3.397,     1.278,     0.000,     0.000,     0.000,     0.000,   1,1,0
   193,'1 ',1,   1,   4,     3.397,     1.204,     0.000,     0.000,     0.000,     0.000,   1,1,0
   194,'1 ',1,   1,   4,     9.002,     2.925,     0.000,     0.000,     0.000,     0.000,   1,1,0
   195,'99',0,   1,   4,    18.155,     5.789,     0.000,     0.000,     0.000,     0.000,   1,1,0
   196,'1 ',1,   1,   4,     0.000,     0.000,     0.000,     0.000,     0.000,     0.000,   1,1,0
   198,'1 ',1,   1,   4,     2.843,     1.019,     0.000,     0.000,     0.000,     0.000,   1,1,0
   200,'1 ',1,   1,   4,     3.921,     1.093,     0.000,     0.000,     0.000,     0.000,   1,1,0
   201,'1 ',1,   1,   4,     5.480,     1.484,     0.000,     0.000,     0.000,     0.000,   1,1,0
   202,'1 ',1,   1,   4,     1.588,     0.414,     0.000,     0.000,     0.000,     0.000,   1,1,0
   204,'1 ',1,   1,   4,     8.729,     3.441,     0.000,     0.000,     0.000,     0.000,   1,1,0
   205,'1 ',1,   1,   4,     8.279,     3.574,     0.000,     0.000,     0.000,     0.000,   1,1,0
   206,'1 ',1,   1,   4,     3.050,     1.255,     0.000,     0.000,     0.000,     0.000,   1,1,0
   207,'1 ',1,   1,   4,     1.898,     0.768,     0.000,     0.000,     0.000,     0.000,   1,1,0
   208,'99',1,   1,   4,    25.381,    -1.247,     0.000,     0.000,     0.000,     0.000,   1,1,0
   209,'1 ',1,   1,   4,     0.391,     0.222,     0.000,     0.000,     0.000,     0.000,   1,1,0
   213,'99',1,   1,   9,    35.275,    12.276,     0.000,     0.000,     0.000,     0.000,   1,1,0
   214,'99',1,   1,   9,   201.639,    16.370,     0.000,     0.000,     0.000,     0.000,   1,1,0
   216,'99',1,   1,   9,    57.159,    33.270,     0.000,     0.000,     0.000,     0.000,   1,1,0
   220,'99',0,   1,   9,   659.876,    -1.015,     0.000,     0.000,     0.000,     0.000,   1,1,0
   221,'1 ',1,   1,   9,    23.751,    38.454,     0.000,     0.000,     0.000,     0.000,   1,1,0
   222,'1 ',1,   1,   9,    34.237,    67.995,     0.000,     0.000,     0.000,     0.000,   1,1,0
   223,'1 ',1,   1,   9,    44.311,    88.621,     0.000,     0.000,     0.000,     0.000,   1,1,0
   224,'1 ',1,   1,   9,    44.311,    88.621,     0.000,     0.000,     0.000,     0.000,   1,1,0
   224,'99',1,   1,   9,   741.894,   121.667,     0.000,     0.000,     0.000,     0.000,   1,1,0
   225,'99',1,   1,   9,   276.235,    62.468,     0.000,     0.000,     0.000,     0.000,   1,1,0
   226,'99',1,   1,   9,    52.660,    43.391,     0.000,     0.000,     0.000,     0.000,   1,1,0
   227,'99',1,   1,   9,    50.265,   -40.132,     0.000,     0.000,     0.000,     0.000,   1,1,0
   228,'1 ',1,   1,   9,    28.654,    -1.994,     0.000,     0.000,     0.000,     0.000,   1,1,0
   229,'99',1,   1,   9,    10.372,    18.859,     0.000,     0.000,     0.000,     0.000,   1,1,0
   231,'99',1,   1,   9,   110.844,    41.063,     0.000,     0.000,     0.000,     0.000,   1,1,0
   234,'99',1,   1,   9,     5.490,    28.359,     0.000,     0.000,     0.000,     0.000,   1,1,0
   235,'99',1,   1,   9,    36.576,    29.842,     0.000,     0.000,     0.000,     0.000,   1,1,0
   236,'1 ',1,   1,   9,     5.687,    14.770,     0.000,     0.000,     0.000,     0.000,   1,1,0
   236,'99',1,   1,   9,   229.520,    -9.448,     0.000,     0.000,     0.000,     0.000,   1,1,0
   237,'1 ',1,   1,   9,     2.843,     0.739,     0.000,     0.000,     0.000,     0.000,   1,1,0
   238,'1 ',1,   1,   9,     1.676,     0.820,     0.000,     0.000,     0.000,     0.000,   1,1,0
   239,'1 ',1,   1,   9,     1.167,     0.295,     0.000,     0.000,     0.000,     0.000,   1,1,0
   240,'1 ',1,   1,   9,     3.279,     0.812,     0.000,     0.000,     0.000,     0.000,   1,1,0
   241,'1 ',1,   1,   9,     3.427,     0.295,     0.000,     0.000,     0.000,     0.000,   1,1,0
   241,'99',1,   1,   9,     2.630,    -0.205,     0.000,     0.000,     0.000,     0.000,   1,1,0
   242,'1 ',1,   1,   9,    10.258,     5.731,     0.000,     0.000,     0.000,     0.000,   1,1,0
   243,'1 ',1,   1,   9,    14.416,     8.293,     0.000,     0.000,     0.000,     0.000,   1,1,0
   245,'99',1,   1,   9,    59.061,     6.785,     0.000,     0.000,     0.000,     0.000,   1,1,0
   246,'1 ',1,   1,   9,    14.770,    29.540,     0.000,     0.000,     0.000,     0.000,   1,1,0
   247,'1 ',1,   1,   9,    15.088,    15.228,     0.000,     0.000,     0.000,     0.000,   1,1,0
   248,'1 ',1,   1,   9,    26.956,     8.870,     0.000,     0.000,     0.000,     0.000,   1,1,0
   249,'99',1,   1,   9,    61.352,     8.000,     0.000,     0.000,     0.000,     0.000,   1,1,0
   250,'1 ',1,   1,   9,     0.111,     0.495,     0.000,     0.000,     0.000,     0.000,   1,1,0
   251,'1 ',1,   1,   9,    13.677,     9.047,     0.000,     0.000,     0.000,     0.000,   1,1,0
   252,'1 ',1,   1,   9,    10.406,     4.527,     0.000,     0.000,     0.000,     0.000,   1,1,0
   253,'1 ',1,   1,   9,     6.410,     0.739,     0.000,     0.000,     0.000,     0.000,   1,1,0
   253,'99',1,   1,   9,     5.842,    -3.858,     0.000,     0.000,     0.000,     0.000,   1,1,0
   254,'99',1,   1,   9,    51.900,    15.132,     0.000,     0.000,     0.000,     0.000,   1,1,0
   256,'1 ',1,   1,   9,     4.150,     0.886,     0.000,     0.000,     0.000,     0.000,   1,1,0
   257,'1 ',1,   1,   9,     4.150,     0.960,     0.000,     0.000,     0.000,     0.000,   1,1,0
   257,'99',1,   1,   9,    16.478,    10.551,     0.000,     0.000,     0.000,     0.000,   1,1,0
   258,'1 ',1,   1,   9,     2.622,     0.222,     0.000,     0.000,     0.000,     0.000,   1,1,0
   259,'1 ',1,   1,   9,     1.750,     0.443,     0.000,     0.000,     0.000,     0.000,   1,1,0
   260,'1 ',1,   1,   9,     2.622,     0.443,     0.000,     0.000,     0.000,     0.000,   1,1,0
   261,'1 ',1,   1,   9,     1.529,     0.295,     0.000,     0.000,     0.000,     0.000,   1,1,0
   262,'99',1,   1,   9,     1.894,    -6.267,     0.000,     0.000,     0.000,     0.000,   1,1,0
   263,'1 ',1,   1,   9,     0.871,     0.222,     0.000,     0.000,     0.000,     0.000,   1,1,0
   264,'1 ',1,   1,   9,     0.295,     0.074,     0.000,     0.000,     0.000,     0.000,   1,1,0
   266,'1 ',1,   1,   5,     2.193,     2.437,     0.000,     0.000,     0.000,     0.000,   1,1,0
   267,'1 ',1,   1,   5,    10.849,     5.162,     0.000,     0.000,     0.000,     0.000,   1,1,0
   269,'1 ',1,   1,   5,    -6.336,     1.123,     0.000,     0.000,     0.000,     0.000,   1,1,0
   270,'1 ',1,   1,   5,     4.719,     2.230,     0.000,     0.000,     0.000,     0.000,   1,1,0
   272,'1 ',1,   1,   5,    22.650,     4.291,     0.000,     0.000,     0.000,     0.000,   1,1,0
   273,'1 ',1,   1,   5,     2.777,     2.038,     0.000,     0.000,     0.000,     0.000,   1,1,0
   274,'1 ',1,   1,   5,    11.469,     3.080,     0.000,     0.000,     0.000,     0.000,   1,1,0
   277,'99',1,   1,   5,   119.234,    58.367,     0.000,     0.000,     0.000,     0.000,   1,1,0
   279,'1 ',1,   1,   5,     5.458,     2.275,     0.000,     0.000,     0.000,     0.000,   1,1,0
   281,'1 ',1,   1,   5,     1.507,     2.230,     0.000,     0.000,     0.000,     0.000,   1,1,0
   284,'1 ',1,   1,   5,     4.394,     1.425,     0.000,     0.000,     0.000,     0.000,   1,1,0
   284,'99',1,   1,   5,     4.903,     4.086,     0.000,     0.000,     0.000,     0.000,   1,1,0
   285,'1 ',1,   1,   5,     1.588,     1.470,     0.000,     0.000,     0.000,     0.000,   1,1,0
   286,'1 ',1,   1,   5,     1.049,     2.090,     0.000,     0.000,     0.000,     0.000,   1,1,0
   287,'1 ',1,   1,   5,     1.004,     1.957,     0.000,     0.000,     0.000,     0.000,   1,1,0
   289,'1 ',1,   1,   5,     4.446,     2.393,     0.000,     0.000,     0.000,     0.000,   1,1,0
   289,'99',1,   1,   5,     1.572,    -2.061,     0.000,     0.000,     0.000,     0.000,   1,1,0
...
0 / END OF LOAD DATA, BEGIN FIXED SHUNT DATA
     2,'1 ',1,     0.000,    15.498
    23,'1 ',1,     0.000,  -120.310
    36,'1 ',1,     0.000,    -4.438
    58,'1 ',1,     0.000,    10.592
    81,'1 ',1,     0.000,    21.502
    98,'1 ',1,     0.000,   -24.285
   100,'1 ',1,     0.000,     4.571
   102,'1 ',1,     0.000,   -43.607
   133,'1 ',1,     0.000,    -1.321
   137,'1 ',1,     0.000,   -13.204
   143,'1 ',1,     0.000,     1.197
   145,'1 ',1,     0.000,    16.360
   149,'1 ',1,     0.000,    -8.091
   156,'1 ',1,     0.000,    40.892
   195,'1 ',1,     0.000,     5.562
   220,'1 ',1,     0.000,    -1.094
   304,'1 ',1,     0.000,     2.218
   348,'1 ',1,     0.000,     5.534
   357,'1 ',1,     0.000,   -30.025
   363,'1 ',1,     0.000,    24.399
   364,'1 ',1,     0.000,   -71.188
   367,'1 ',1,     0.000,    60.608
   376,'1 ',1,     0.000,    -9.534
   380,'1 ',1,     0.000,    11.017
   386,'1 ',1,     0.000,    -5.842
   390,'1 ',1,     0.000,    12.518
   428,'1 ',1,     0.000,    -7.317
   442,'1 ',1,     0.000,    -7.663
   443,'1 ',1,     0.000,    12.284
   444,'1 ',1,     0.000,    19.281
   460,'1 ',1,     0.000,    32.216
   525,'1 ',1,     0.000,   100.748
   576,'1 ',1,     0.000,   -63.285
   591,'1 ',1,     0.000,    22.609
   595,'1 ',1,     0.000,     6.261
   623,'1 ',1,     0.000,    -2.498
   624,'1 ',1,     0.000,     6.887
   631,'1 ',1,     0.000,    30.406
   639,'1 ',1,     0.000,   -66.624
   640,'1 ',1,     0.000,   -75.050
   642,'1 ',1,     0.000,    88.396
   653,'1 ',1,     0.000,    26.664
   684,'1 ',1,     0.000,     0.059
   696,'1 ',1,     0.000,    -1.903
   697,'1 ',1,     0.000,   -37.362
   743,'1 ',1,     0.000,    -1.150
   748,'1 ',1,     0.000,   -19.101
   791,'1 ',1,     0.000,     0.336
   794,'1 ',1,     0.000,    -2.220
0 / END OF FIXED SHUNT DATA, BEGIN GENERATOR DATA
     6,'1 ',     0.000,     0.000,    33.333,   -33.333,0.95340,     0,   100.000, 0.00000E+0, 1.00000E+0, 0.00000E+0, 0.00000E+0,1.00000,0,  100.0,    63.000,    28.500,   1,1.0000,0,1,0,1,0,1,0,1
    23,'98',     5.515,   -87.437,   300.000,  -300.000,1.01000,     0,   100.000, 0.00000E+0, 1.00000E+0, 0.00000E+0, 0.00000E+0,1.00000,1,  100.0,    60.873,     0.000,   1,1.0000,0,1,0,1,0,1,0,1
    25,'1 ',     0.000,     0.000,    22.500,   -22.500,0.95340,     0,    67.500, 0.00000E+0, 1.65000E-1, 0.00000E+0, 0.00000E+0,1.00000,0,  100.0,   280.000,     0.000,   1,1.0000,0,1,0,1,0,1,0,1
    25,'2 ',     0.000,     0.000,    22.500,   -22.500,0.95340,     0,    67.500, 0.00000E+0, 1.65000E-1, 0.00000E+0, 0.00000E+0,1.00000,0,  100.0,    60.430,    14.250,   1,1.0000,0,1,0,1,0,1,0,1
    31,'99',    73.969,    12.296,   600.000,  -600.000,1.00990,     0,   100.000, 0.00000E+0, 1.00000E+0, 0.00000E+0, 0.00000E+0,1.00000,1,  100.0,   161.545,     0.000,   1,1.0000,0,1,0,1,0,1,0,1
    33,'1 ',     0.000,     0.000,    19.290,   -19.290,1.00870,    36,    57.870, 0.00000E+0, 1.48000E-1, 4.70000E-3, 9.39000E-2,1.00000,0,  100.0,    46.200,    11.400,   1,1.0000,0,1,0,1,0,1,0,1
    35,'1 ',     0.000,     0.000,    33.127,   -33.127,1.01010,     0,    99.380, 0.00000E+0, 1.78000E-1, 4.50000E-3, 9.28000E-2,1.00000,0,  100.0,   288.000,     0.000,   1,1.0000,0,1,0,1,0,1,0,1
    35,'2 ',     0.000,     0.000,    23.050,   -23.050,1.01010,     0,    69.150, 0.00000E+0, 1.35000E-1, 2.00000E-3, 5.85000E-2,1.00000,0,  100.0,   300.000,     0.000,   1,1.0000,0,1,0,1,0,1,0,1
    35,'3 ',     0.000,     0.000,    16.237,   -16.237,1.01010,     0,    48.710, 0.00000E+0, 1.93000E-1, 1.60000E-3, 5.41000E-2,1.00000,0,  100.0,    40.140,    25.140,   1,1.0000,0,1,0,1,0,1,0,1
    43,'99',     2.408,    -4.556,   600.000,  -600.000,1.01310,     0,   100.000, 0.00000E+0, 1.00000E+0, 0.00000E+0, 0.00000E+0,1.00000,1,  100.0,   357.500,     0.000,   1,1.0000,0,1,0,1,0,1,0,1
    45,'1 ',     0.000,     0.000,    67.750,   -67.750,1.00870,    36,   203.250, 0.00000E+0, 2.26000E-1, 9.40000E-3, 1.87600E-1,1.00000,0,  100.0,   173.250,    50.540,   1,1.0000,0,1,0,1,0,1,0,1
    46,'99',    24.560,   -10.834,   600.000,  -600.000,1.00480,     0,   100.000, 0.00000E+0, 1.00000E+0, 0.00000E+0, 0.00000E+0,1.00000,1,  100.0,    66.162,     0.000,   1,1.0000,0,1,0,1,0,1,0,1
    47,'99',    32.568,   -12.057,   600.000,  -600.000,1.01310,     0,   100.000, 0.00000E+0, 1.00000E+0, 0.00000E+0, 0.00000E+0,1.00000,1,  100.0,    81.621,     0.000,   1,1.0000,0,1,0,1,0,1,0,1
    52,'99',    59.008,   -47.149,   600.000,  -600.000,1.00510,     0,   100.000, 0.00000E+0, 1.00000E+0, 0.00000E+0, 0.00000E+0,1.00000,1,  100.0,   132.664,     0.000,   1,1.0000,0,1,0,1,0,1,0,1
    55,'99',    73.945,   -14.294,   600.000,  -600.000,1.01080,     0,   100.000, 0.00000E+0, 1.00000E+0, 0.00000E+0, 0.00000E+0,1.00000,1,  100.0,   161.500,     0.000,   1,1.0000,0,1,0,1,0,1,0,1
    59,'1 ',   125.967,   254.700,   254.700,  -254.700,1.04000,     0,   100.000, 0.00000E+0, 1.00000E+0, 0.00000E+0, 0.00000E+0,1.00000,1,  100.0,   353.750,     3.833,   1,1.0000,0,1,0,1,0,1,0,1
    65,'1 ',     0.000,     0.000,   226.800,  -226.800,1.01660,    16,    27.800, 0.00000E+0, 3.20000E-1, 0.00000E+0, 0.00000E+0,1.00000,0,  100.0,   315.000,     7.393,   1,1.0000,0,1,0,1,0,1,0,1
    65,'2 ',     0.000,     0.000,     9.267,    -9.267,1.01660,    16,    27.800, 0.00000E+0, 3.20000E-1, 0.00000E+0, 0.00000E+0,1.00000,0,  100.0,    25.200,     4.750,   1,1.0000,0,1,0,1,0,1,0,1
    71,'99',    32.058,   -10.901,   600.000,  -600.000,1.01590,     0,   100.000, 0.00000E+0, 1.00000E+0, 0.00000E+0, 0.00000E+0,1.00000,1,  100.0,    80.636,     0.000,   1,1.0000,0,1,0,1,0,1,0,1
    80,'1 ',     0.000,     0.000,     9.267,    -9.267,1.01660,    16,    27.800, 0.00000E+0, 3.20000E-1, 0.00000E+0, 0.00000E+0,1.00000,0,  100.0,    26.250,     4.750,   1,1.0000,0,1,0,1,0,1,0,1
    80,'2 ',     0.000,     0.000,     9.267,    -9.267,1.01660,    16,    27.800, 0.00000E+0, 3.20000E-1, 0.00000E+0, 0.00000E+0,1.00000,0,  100.0,    25.200,     1.900,   1,1.0000,0,1,0,1,0,1,0,1
    86,'99',    41.582,    -1.752,   600.000,  -600.000,1.01070,     0,   100.000, 0.00000E+0, 1.00000E+0, 0.00000E+0, 0.00000E+0,1.00000,1,  100.0,    99.024,     0.000,   1,1.0000,0,1,0,1,0,1,0,1
    87,'1 ',     0.000,     0.000,   234.900,  -234.900,1.00510,     0,   100.000, 0.00000E+0, 1.00000E+0, 0.00000E+0, 0.00000E+0,1.00000,0,  100.0,   326.250,     0.000,   1,1.0000,0,1,0,1,0,1,0,1
    90,'99',    26.949,    14.510,   600.000,  -600.000,1.00780,     0,   100.000, 0.00000E+0, 1.00000E+0, 0.00000E+0, 0.00000E+0,1.00000,1,  100.0,    70.774,     0.000,   1,1.0000,0,1,0,1,0,1,0,1
    93,'99',     6.323,   -59.647,   600.000,  -600.000,1.01610,     0,   100.000, 0.00000E+0, 1.00000E+0, 0.00000E+0, 0.00000E+0,1.00000,1,  100.0,   315.000,     0.000,   1,1.0000,0,1,0,1,0,1,0,1
    98,'99',    50.268,   -25.234,    33.333,   -33.333,1.01935,     0,   100.000, 0.00000E+0, 1.00000E+0, 0.00000E+0, 0.00000E+0,1.00000,0,  100.0,    65.268,    50.268,   1,1.0000,0,1,0,1,0,1,0,1
    99,'1 ',     0.000,     0.000,   129.375,  -129.375,1.02455,     0,   163.450, 0.00000E+0, 1.80000E-1, 0.00000E+0, 0.00000E+0,1.00000,0,  100.0,   179.688,    70.000,   1,1.0000,0,1,0,1,0,1,0,1
   100,'1 ',     0.000,     0.000,   129.375,  -129.375,1.02455,     0,   148.190, 0.00000E+0, 1.80000E-1, 0.00000E+0, 0.00000E+0,1.00000,0,  100.0,   179.688,    70.000,   1,1.0000,0,1,0,1,0,1,0,1
   100,'99',    13.104,     4.798,    33.333,   -33.333,1.02455,     0,   100.000, 0.00000E+0, 1.00000E+0, 0.00000E+0, 0.00000E+0,1.00000,0,  100.0,    28.104,    13.104,   1,1.0000,0,1,0,1,0,1,0,1
   116,'1 ',     0.000,     0.000,   123.750,  -123.750,1.02455,     0,   147.700, 0.00000E+0, 1.80000E-1, 0.00000E+0, 0.00000E+0,1.00000,0,  100.0,   171.875,    32.000,   1,1.0000,0,1,0,1,0,1,0,1
   117,'1 ',     0.000,     0.000,    37.667,   -37.667,1.02455,     0,   113.000, 0.00000E+0, 1.80000E-1, 0.00000E+0, 0.00000E+0,1.00000,0,  100.0,   113.000,    32.000,   1,1.0000,0,1,0,1,0,1,0,1
   121,'1 ',     0.000,     0.000,    45.000,   -45.000,1.02455,     0,   135.000, 0.00000E+0, 1.80000E-1, 0.00000E+0, 0.00000E+0,1.00000,0,  100.0,   135.000,    35.000,   1,1.0000,0,1,0,1,0,1,0,1
   131,'1 ',     0.000,     0.000,     8.333,    -8.333,1.02182,     0,    25.000, 0.00000E+0, 2.00000E-1, 0.00000E+0, 0.00000E+0,1.00000,0,  100.0,    25.000,    10.000,   1,1.0000,0,1,0,1,0,1,0,1
   131,'2 ',     0.000,     0.000,     8.333,    -8.333,1.02182,     0,    25.000, 0.00000E+0, 2.00000E-1, 0.00000E+0, 0.00000E+0,1.00000,0,  100.0,    25.000,    10.000,   1,1.0000,0,1,0,1,0,1,0,1
   131,'3 ',     0.000,     0.000,   195.000,  -172.000,1.02182,     0,    30.000, 0.00000E+0, 2.00000E-1, 0.00000E+0, 0.00000E+0,1.00000,0,  100.0,    39.062,    10.000,   1,1.0000,0,1,0,1,0,1,0,1
   131,'4 ',     0.000,     0.000,   177.000,  -168.000,1.02182,     0,    25.000, 0.00000E+0, 2.00000E-1, 0.00000E+0, 0.00000E+0,1.00000,0,  100.0,    31.250,    10.000,   1,1.0000,0,1,0,1,0,1,0,1
   133,'99',     2.396,    -1.381,    33.333,   -33.333,1.02260,     0,   100.000, 0.00000E+0, 1.00000E+0, 0.00000E+0, 0.00000E+0,1.00000,0,  100.0,   295.000,     2.396,   1,1.0000,0,1,0,1,0,1,0,1
   134,'1 ',     0.000,     0.000,    16.667,   -16.667,1.02455,     0,    50.000, 0.00000E+0, 2.00000E-1, 0.00000E+0, 0.00000E+0,1.00000,0,  100.0,    50.000,    10.000,   1,1.0000,0,1,0,1,0,1,0,1
   151,'1 ',     0.000,     0.000,   108.000,  -108.000,1.02455,     0,   120.000, 0.00000E+0, 1.80000E-1, 0.00000E+0, 0.00000E+0,1.00000,0,  100.0,   150.000,    70.000,   1,1.0000,0,1,0,1,0,1,0,1
   151,'2 ',   120.000,   108.000,   108.000,  -108.000,1.02455,     0,   120.000, 0.00000E+0, 1.80000E-1, 0.00000E+0, 0.00000E+0,1.00000,1,  100.0,   150.000,    58.333,   1,1.0000,0,1,0,1,0,1,0,1
   152,'1 ',   149.993,   102.711,   134.994,  -134.994,1.02455,     0,   144.000, 0.00000E+0, 1.80000E-1, 0.00000E+0, 0.00000E+0,1.00000,1,  100.0,   187.491,    79.000,   1,1.0000,0,1,0,1,0,1,0,1
   152,'2 ',     0.000,     0.000,    36.667,   -36.667,1.02455,     0,   110.000, 0.00000E+0, 1.80000E-1, 0.00000E+0, 0.00000E+0,1.00000,0,  100.0,   110.000,    79.000,   1,1.0000,0,1,0,1,0,1,0,1
   156,'99',    47.466,    43.051,    33.333,   -33.333,1.02608,     0,   100.000, 0.00000E+0, 1.00000E+0, 0.00000E+0, 0.00000E+0,1.00000,0,  100.0,    62.466,    47.466,   1,1.0000,0,1,0,1,0,1,0,1
   159,'99',     0.080,    67.524,   600.000,  -600.000,1.01930,     0,   100.000, 0.00000E+0, 1.00000E+0, 0.00000E+0, 0.00000E+0,1.00000,1,  100.0,   366.250,     0.000,   1,1.0000,0,1,0,1,0,1,0,1
   190,'99',    38.671,   100.160,   600.000,  -600.000,1.03300,     0,   100.000, 0.00000E+0, 1.00000E+0, 0.00000E+0, 0.00000E+0,1.00000,1,  100.0,    99.579,     0.000,   1,1.0000,0,1,0,1,0,1,0,1
   221,'1 ',     0.000,     0.000,   123.333,  -123.333,1.02864,     0,   370.000, 0.00000E+0, 2.10000E-1, 0.00000E+0, 0.00000E+0,1.00000,0,  100.0,   370.000,   240.000,   1,1.0000,0,1,0,1,0,1,0,1
   221,'2 ',     0.000,     0.000,   123.333,  -123.333,1.02864,     0,   370.000, 0.00000E+0, 2.10000E-1, 0.00000E+0, 0.00000E+0,1.00000,0,  100.0,   370.000,   240.000,   1,1.0000,0,1,0,1,0,1,0,1
   221,'3 ',     0.000,     0.000,   388.125,  -388.125,1.02864,     0,   449.450, 0.00000E+0, 2.10000E-1, 0.00000E+0, 0.00000E+0,1.00000,0,  100.0,   539.062,   240.000,   1,1.0000,0,1,0,1,0,1,0,1
   222,'1 ',   462.500,   165.686,   416.250,  -416.250,1.02864,     0,   455.560, 0.00000E+0, 2.10000E-1, 0.00000E+0, 0.00000E+0,1.00000,1,  100.0,   578.125,   240.000,   1,1.0000,0,1,0,1,0,1,0,1
   222,'2 ',     0.000,     0.000,   333.000,  -333.000,1.02864,     0,   397.310, 0.00000E+0, 2.10000E-1, 0.00000E+0, 0.00000E+0,1.00000,0,  100.0,   462.500,   240.000,   1,1.0000,0,1,0,1,0,1,0,1
   223,'1 ',   421.176,   -17.172,   981.927,  -981.927,1.01200,     0,   616.840, 0.00000E+0, 2.35000E-1, 0.00000E+0, 0.00000E+0,1.00000,1,  100.0,  1363.788,   350.876,   1,1.0000,0,1,0,1,0,1,0,1
   223,'2 ',   421.176,   -17.172,   981.927,  -981.927,1.01200,     0,   616.840, 0.00000E+0, 2.35000E-1, 0.00000E+0, 0.00000E+0,1.00000,1,  100.0,  1363.788,   350.876,   1,1.0000,0,1,0,1,0,1,0,1
   223,'3 ',   421.176,   -17.172,   981.927,  -981.927,1.01200,     0,   616.840, 0.00000E+0, 2.35000E-1, 0.00000E+0, 0.00000E+0,1.00000,1,  100.0,  1363.788,   350.876,   1,1.0000,0,1,0,1,0,1,0,1
   224,'1 ',     0.000,     0.000,   416.250,  -416.250,1.01200,     0,   451.840, 0.00000E+0, 2.10000E-1, 0.00000E+0, 0.00000E+0,1.00000,0,  100.0,   578.125,   240.000,   1,1.0000,0,1,0,1,0,1,0,1
   224,'2 ',   425.000,   107.072,   382.500,  -382.500,1.01200,     0,   416.510, 0.00000E+0, 2.10000E-1, 0.00000E+0, 0.00000E+0,1.00000,1,  100.0,   531.250,   240.000,   1,1.0000,0,1,0,1,0,1,0,1
   224,'3 ',   425.000,   107.072,   382.500,  -382.500,1.01200,     0,   416.510, 0.00000E+0, 2.10000E-1, 0.00000E+0, 0.00000E+0,1.00000,1,  100.0,   531.250,   240.000,   1,1.0000,0,1,0,1,0,1,0,1
   233,'99',    91.915,   -20.564,   600.000,  -600.000,1.00410,     0,   100.000, 0.00000E+0, 1.00000E+0, 0.00000E+0, 0.00000E+0,1.00000,1,  100.0,   221.800,     0.000,   1,1.0000,0,1,0,1,0,1,0,1
   236,'1 ',     0.000,     0.000,   123.750,  -123.750,1.02045,     0,   166.810, 0.00000E+0, 1.80000E-1, 0.00000E+0, 0.00000E+0,1.00000,0,  100.0,   171.875,    91.667,   1,1.0000,0,1,0,1,0,1,0,1
   236,'98',     0.000,    95.100,   371.000,  -371.000,1.02045,     0,   120.000, 0.00000E+0, 1.80000E-1, 0.00000E+0, 0.00000E+0,1.00000,1,  100.0,   150.000,     0.000,   1,1.0000,0,1,0,1,0,1,0,1
   246,'1 ',   437.500,    75.128,   393.750,  -393.750,1.01364,     0,   477.900, 0.00000E+0, 2.10000E-1, 0.00000E+0, 0.00000E+0,1.00000,1,  100.0,   546.875,   240.000,   1,1.0000,0,1,0,1,0,1,0,1
   250,'1 ',     0.000,     0.000,   190.000,  -179.000,1.02182,     0,    30.000, 0.00000E+0, 2.00000E-1, 0.00000E+0, 0.00000E+0,1.00000,0,  100.0,    37.500,     0.000,   1,1.0000,0,1,0,1,0,1,0,1
   256,'1 ',   119.701,     1.752,   228.600,  -228.600,1.02455,     0,     0.430, 0.00000E+0, 2.00000E-1, 0.00000E+0, 0.00000E+0,1.00000,1,  100.0,   317.500,     0.000,   1,1.0000,0,1,0,1,0,1,0,1
   267,'99',     5.600,     9.629,   600.000,  -600.000,1.01000,     0,   100.000, 0.00000E+0, 1.00000E+0, 0.00000E+0, 0.00000E+0,1.00000,1,  100.0,   367.500,     0.000,   1,1.0000,0,1,0,1,0,1,0,1
   268,'99',   207.824,   160.815,   600.000,  -600.000,1.01800,     0,   100.000, 0.00000E+0, 1.00000E+0, 0.00000E+0, 0.00000E+0,1.00000,1,  100.0,   501.500,     0.000,   1,1.0000,0,1,0,1,0,1,0,1
   272,'99',    32.536,    37.823,   600.000,  -600.000,1.01940,     0,   100.000, 0.00000E+0, 1.00000E+0, 0.00000E+0, 0.00000E+0,1.00000,1,  100.0,    93.094,     0.000,   1,1.0000,0,1,0,1,0,1,0,1
   275,'99',     3.116,   -43.896,   600.000,  -600.000,1.01850,     0,   100.000, 0.00000E+0, 1.00000E+0, 0.00000E+0, 0.00000E+0,1.00000,1,  100.0,    91.321,     0.000,   1,1.0000,0,1,0,1,0,1,0,1
   281,'99',     3.800,     1.699,   600.000,  -600.000,1.01020,     0,   100.000, 0.00000E+0, 1.00000E+0, 0.00000E+0, 0.00000E+0,1.00000,1,  100.0,   340.000,     0.000,   1,1.0000,0,1,0,1,0,1,0,1
   293,'1 ',     0.000,     0.000,    76.667,   -76.667,1.02590,   322,   230.000, 2.30000E-3, 1.68000E-1, 0.00000E+0, 0.00000E+0,1.02500,0,  100.0,   173.250,   117.800,   1,1.0000,0,1,0,1,0,1,0,1
   296,'1 ',     0.000,     0.000,    76.667,   -76.667,1.02590,   322,   230.000, 2.30000E-3, 1.68000E-1, 0.00000E+0, 0.00000E+0,1.02500,0,  100.0,   173.250,   117.800,   1,1.0000,0,1,0,1,0,1,0,1
   298,'99',     8.491,     7.595,   600.000,  -600.000,1.02780,     0,   100.000, 0.00000E+0, 1.00000E+0, 0.00000E+0, 0.00000E+0,1.00000,1,  100.0,    35.141,     0.000,   1,1.0000,0,1,0,1,0,1,0,1
   304,'99',    29.434,     2.277,    33.333,   -33.333,1.01312,     0,   100.000, 0.00000E+0, 1.00000E+0, 0.00000E+0, 0.00000E+0,1.00000,0,  100.0,    44.434,    29.434,   1,1.0000,0,1,0,1,0,1,0,1
   305,'1 ',     0.000,     0.000,    76.667,   -76.667,1.02590,   265,   230.000, 2.20000E-3, 1.72800E-1, 0.00000E+0, 0.00000E+0,1.02500,0,  100.0,   173.250,   117.800,   1,1.0000,0,1,0,1,0,1,0,1
   307,'99',    14.169,     3.535,   600.000,  -600.000,1.00640,     0,   100.000, 0.00000E+0, 1.00000E+0, 0.00000E+0, 0.00000E+0,1.00000,1,  100.0,    46.103,     0.000,   1,1.0000,0,1,0,1,0,1,0,1
   309,'1 ',     0.000,     0.000,   444.271,  -444.271,1.01000,   308,   300.000, 0.00000E+0, 2.07000E-1, 0.00000E+0, 0.00000E+0,1.00000,0,  100.0,   617.042,   198.808,   1,1.0000,0,1,0,1,0,1,0,1
   326,'1 ',     0.000,     0.000,    76.667,   -76.667,1.02590,   265,   230.000, 2.20000E-3, 1.72800E-1, 0.00000E+0, 0.00000E+0,1.02500,0,  100.0,   173.250,   117.800,   1,1.0000,0,1,0,1,0,1,0,1
   335,'1 ',     0.000,     0.000,    76.667,   -76.667,1.02590,   265,   230.000, 2.20000E-3, 1.72800E-1, 0.00000E+0, 0.00000E+0,1.02500,0,  100.0,   173.250,   117.800,   1,1.0000,0,1,0,1,0,1,0,1
   337,'99',     4.067,     3.683,   600.000,  -600.000,1.01000,     0,   100.000, 0.00000E+0, 1.00000E+0, 0.00000E+0, 0.00000E+0,1.00000,1,  100.0,   323.750,     0.000,   1,1.0000,0,1,0,1,0,1,0,1
   342,'1 ',     0.000,     0.000,   245.700,  -245.700,1.03000,     0,   100.000, 0.00000E+0, 1.00000E+0, 0.00000E+0, 0.00000E+0,1.00000,0,  100.0,   341.250,     0.000,   1,1.0000,0,1,0,1,0,1,0,1
   345,'99',     7.952,     6.293,   600.000,  -600.000,1.02780,     0,   100.000, 0.00000E+0, 1.00000E+0, 0.00000E+0, 0.00000E+0,1.00000,1,  100.0,    34.101,     0.000,   1,1.0000,0,1,0,1,0,1,0,1
   350,'99',    72.811,    -9.286,   600.000,  -600.000,1.00180,     0,   100.000, 0.00000E+0, 1.00000E+0, 0.00000E+0, 0.00000E+0,1.00000,1,  100.0,   159.310,     0.000,   1,1.0000,0,1,0,1,0,1,0,1
   352,'1 ',     0.000,     0.000,   302.333,  -302.333,1.02590,   277,   907.000, 3.80000E-3, 2.20000E-1, 0.00000E+0, 0.00000E+0,1.00000,0,  100.0,   254.000,     0.000,   1,1.0000,0,1,0,1,0,1,0,1
   353,'99',    54.470,  -126.690,   600.000,  -600.000,1.00630,     0,   100.000, 0.00000E+0, 1.00000E+0, 0.00000E+0, 0.00000E+0,1.00000,1,  100.0,   147.834,     0.000,   1,1.0000,0,1,0,1,0,1,0,1
   357,'99',   122.965,   -29.975,    33.333,   -33.333,1.01000,     0,   100.000, 0.00000E+0, 1.00000E+0, 0.00000E+0, 0.00000E+0,1.00000,0,  100.0,   137.965,   122.965,   1,1.0000,0,1,0,1,0,1,0,1
   361,'99',   275.179,  -163.718,   600.000,  -600.000,1.01000,     0,   100.000, 0.00000E+0, 1.00000E+0, 0.00000E+0, 0.00000E+0,1.00000,1,  100.0,   625.135,     0.000,   1,1.0000,0,1,0,1,0,1,0,1
   364,'99',    27.029,   -71.598,    33.333,   -33.333,1.00286,     0,   100.000, 0.00000E+0, 1.00000E+0, 0.00000E+0, 0.00000E+0,1.00000,0,  100.0,    42.029,    27.029,   1,1.0000,0,1,0,1,0,1,0,1
   370,'1 ',     0.000,     0.000,   228.552,  -228.552,1.01125,     0,   216.550, 0.00000E+0, 1.80000E-1, 0.00000E+0, 0.00000E+0,1.00000,0,  100.0,   317.434,    99.538,   1,1.0000,0,1,0,1,0,1,0,1
   370,'2 ',     0.000,     0.000,   228.552,  -228.552,1.01125,     0,   179.000, 0.00000E+0, 1.80000E-1, 0.00000E+0, 0.00000E+0,1.00000,0,  100.0,   317.434,    99.538,   1,1.0000,0,1,0,1,0,1,0,1
   370,'3 ',     0.000,     0.000,   228.552,  -228.552,1.01125,     0,   179.000, 0.00000E+0, 1.80000E-1, 0.00000E+0, 0.00000E+0,1.00000,0,  100.0,   317.434,    99.538,   1,1.0000,0,1,0,1,0,1,0,1
   371,'1 ',     0.000,     0.000,   161.100,  -161.100,1.01125,     0,   179.000, 0.00000E+0, 1.80000E-1, 0.00000E+0, 0.00000E+0,1.00000,0,  100.0,   223.750,  -200.000,   1,1.0000,0,1,0,1,0,1,0,1
   373,'1 ',     0.000,     0.000,    49.500,  -185.000,1.01909,     0,    58.990, 0.00000E+0, 2.00000E-1, 0.00000E+0, 0.00000E+0,1.00000,0,  100.0,    68.750,    26.000,   1,1.0000,0,1,0,1,0,1,0,1
   374,'1 ',     0.000,     0.000,    18.333,   -18.333,1.01909,     0,    55.000, 0.00000E+0, 2.00000E-1, 0.00000E+0, 0.00000E+0,1.00000,0,  100.0,    55.000,    26.000,   1,1.0000,0,1,0,1,0,1,0,1
   375,'1 ',     0.000,     0.000,   264.600,  -264.600,1.02182,     0,     0.360, 0.00000E+0, 2.00000E-1, 0.00000E+0, 0.00000E+0,1.00000,0,  100.0,   367.500,     0.000,   1,1.0000,0,1,0,1,0,1,0,1
   376,'1 ',     0.000,     0.000,   193.000,  -169.000,1.02727,     0,    26.000, 0.00000E+0, 2.00000E-1, 0.00000E+0, 0.00000E+0,1.00000,0,  100.0,    32.500,     0.000,   1,1.0000,0,1,0,1,0,1,0,1
...